optran: no such command available in ngspice

Compatibility modes selected: hs a

Warning: m=xx on .subckt line will override multiplier m hierarchy!

Warning: redefinition of .subckt sky130_fd_pr__model__parasitic__res_po, ignored
Warning: redefinition of .subckt sky130_fd_pr__res_xhigh_po, ignored
Warning: redefinition of .subckt sky130_fd_pr__res_high_po, ignored
Warning: redefinition of .subckt sky130_fd_pr__res_xhigh_po_0p35, ignored
Warning: redefinition of .subckt sky130_fd_pr__res_xhigh_po_0p69, ignored
Warning: redefinition of .subckt sky130_fd_pr__res_xhigh_po_1p41, ignored
Warning: redefinition of .subckt sky130_fd_pr__res_xhigh_po_2p85, ignored
Warning: redefinition of .subckt sky130_fd_pr__res_xhigh_po_5p73, ignored
Warning: redefinition of .subckt sky130_fd_pr__res_xhigh_po__base, ignored
Warning: redefinition of .subckt sky130_fd_pr__res_high_po_0p35, ignored
Warning: redefinition of .subckt sky130_fd_pr__res_high_po_0p69, ignored
Warning: redefinition of .subckt sky130_fd_pr__res_high_po_1p41, ignored
Warning: redefinition of .subckt sky130_fd_pr__res_high_po_2p85, ignored
Warning: redefinition of .subckt sky130_fd_pr__res_high_po_5p73, ignored
Warning: redefinition of .subckt sky130_fd_pr__res_generic_po, ignored
Warning: redefinition of .subckt sky130_fd_pr__res_generic_nd, ignored
Warning: redefinition of .subckt sky130_fd_pr__res_generic_pd, ignored
Warning: redefinition of .subckt sky130_fd_pr__pnp_05v5_w0p68l0p68, ignored

Circuit: * /home/inderjitsingh/esim-workspace/8_bit_sram/8_bit_sram.cir

option SCALE: Scale is set to 1e-06 for instance and model parameters
Reducing trtol to 1 for xspice 'A' devices
Doing analysis at TEMP = 27.000000 and TNOM = 27.000000

Warning: include: has no value, DC 0 assumed
Warning: v6: no DC value, transient time 0 value used
Warning: v5: no DC value, transient time 0 value used
Warning: v3: no DC value, transient time 0 value used
Warning: v2: no DC value, transient time 0 value used
Warning: v1: no DC value, transient time 0 value used
=============idata_writer_cktsd : New Iteration===========
Instance : 0

Inside foo before eval.....
wl=0
win=0
bl=0
blbar=0

Inside foo after eval.....
wl=0
win=0
bl=0
blbar=1
=============idata_writer_cktsd : New Iteration===========
Instance : 1

Inside foo before eval.....
wl=0
win=0
bl=0
blbar=0

Inside foo after eval.....
wl=0
win=0
bl=0
blbar=1
=============idata_writer_cktsd : New Iteration===========
Instance : 2

Inside foo before eval.....
wl=0
win=0
bl=0
blbar=0

Inside foo after eval.....
wl=0
win=0
bl=0
blbar=1
=============idata_writer_cktsd : New Iteration===========
Instance : 3

Inside foo before eval.....
wl=0
win=0
bl=0
blbar=0

Inside foo after eval.....
wl=0
win=0
bl=0
blbar=1
=============idata_writer_cktsd : New Iteration===========
Instance : 4

Inside foo before eval.....
wl=0
win=0
bl=0
blbar=0

Inside foo after eval.....
wl=0
win=0
bl=0
blbar=1
=============idata_writer_cktsd : New Iteration===========
Instance : 5

Inside foo before eval.....
wl=0
win=0
bl=0
blbar=0

Inside foo after eval.....
wl=0
win=0
bl=0
blbar=1
=============idata_writer_cktsd : New Iteration===========
Instance : 6

Inside foo before eval.....
wl=0
win=0
bl=0
blbar=0

Inside foo after eval.....
wl=0
win=0
bl=0
blbar=1
=============idata_writer_cktsd : New Iteration===========
Instance : 7

Inside foo before eval.....
wl=0
win=0
bl=0
blbar=0

Inside foo after eval.....
wl=0
win=0
bl=0
blbar=1
=============isramsd_decoder : New Iteration===========
Instance : 0

Inside foo before eval.....
a=0
enbl=0
d=0

Inside foo after eval.....
a=0
enbl=0
d=0
=============idata_writer_cktsd : New Iteration===========
Instance : 0

Inside foo before eval.....
wl=0
win=0
bl=0
blbar=1

Inside foo after eval.....
wl=0
win=0
bl=0
blbar=1
=============idata_writer_cktsd : New Iteration===========
Instance : 1

Inside foo before eval.....
wl=0
win=0
bl=0
blbar=1

Inside foo after eval.....
wl=0
win=0
bl=0
blbar=1
=============idata_writer_cktsd : New Iteration===========
Instance : 2

Inside foo before eval.....
wl=0
win=0
bl=0
blbar=1

Inside foo after eval.....
wl=0
win=0
bl=0
blbar=1
=============idata_writer_cktsd : New Iteration===========
Instance : 3

Inside foo before eval.....
wl=0
win=0
bl=0
blbar=1

Inside foo after eval.....
wl=0
win=0
bl=0
blbar=1
=============idata_writer_cktsd : New Iteration===========
Instance : 4

Inside foo before eval.....
wl=0
win=0
bl=0
blbar=1

Inside foo after eval.....
wl=0
win=0
bl=0
blbar=1
=============idata_writer_cktsd : New Iteration===========
Instance : 5

Inside foo before eval.....
wl=0
win=0
bl=0
blbar=1

Inside foo after eval.....
wl=0
win=0
bl=0
blbar=1
=============idata_writer_cktsd : New Iteration===========
Instance : 6

Inside foo before eval.....
wl=0
win=0
bl=0
blbar=1

Inside foo after eval.....
wl=0
win=0
bl=0
blbar=1
=============idata_writer_cktsd : New Iteration===========
Instance : 7

Inside foo before eval.....
wl=0
win=0
bl=0
blbar=1

Inside foo after eval.....
wl=0
win=0
bl=0
blbar=1
=============isramsd_decoder : New Iteration===========
Instance : 0

Inside foo before eval.....
a=0
enbl=0
d=0

Inside foo after eval.....
a=0
enbl=0
d=0
=============isramsd_decoder : New Iteration===========
Instance : 0

Inside foo before eval.....
a=0
enbl=0
d=0

Inside foo after eval.....
a=0
enbl=1
d=1
=============idata_writer_cktsd : New Iteration===========
Instance : 7

Inside foo before eval.....
wl=0
win=0
bl=0
blbar=1

Inside foo after eval.....
wl=1
win=0
bl=0
blbar=1
=============isramsd_decoder : New Iteration===========
Instance : 0

Inside foo before eval.....
a=0
enbl=1
d=1

Inside foo after eval.....
a=7
enbl=1
d=128
=============isramsd_decoder : New Iteration===========
Instance : 0

Inside foo before eval.....
a=7
enbl=1
d=128

Inside foo after eval.....
a=7
enbl=1
d=128
=============idata_writer_cktsd : New Iteration===========
Instance : 0

Inside foo before eval.....
wl=0
win=0
bl=0
blbar=1

Inside foo after eval.....
wl=0
win=1
bl=0
blbar=1
=============idata_writer_cktsd : New Iteration===========
Instance : 1

Inside foo before eval.....
wl=0
win=0
bl=0
blbar=1

Inside foo after eval.....
wl=0
win=1
bl=0
blbar=1
=============idata_writer_cktsd : New Iteration===========
Instance : 2

Inside foo before eval.....
wl=0
win=0
bl=0
blbar=1

Inside foo after eval.....
wl=0
win=1
bl=0
blbar=1
=============idata_writer_cktsd : New Iteration===========
Instance : 3

Inside foo before eval.....
wl=0
win=0
bl=0
blbar=1

Inside foo after eval.....
wl=0
win=1
bl=0
blbar=1
=============idata_writer_cktsd : New Iteration===========
Instance : 4

Inside foo before eval.....
wl=0
win=0
bl=0
blbar=1

Inside foo after eval.....
wl=0
win=1
bl=0
blbar=1
=============idata_writer_cktsd : New Iteration===========
Instance : 5

Inside foo before eval.....
wl=0
win=0
bl=0
blbar=1

Inside foo after eval.....
wl=0
win=1
bl=0
blbar=1
=============idata_writer_cktsd : New Iteration===========
Instance : 6

Inside foo before eval.....
wl=0
win=0
bl=0
blbar=1

Inside foo after eval.....
wl=0
win=1
bl=0
blbar=1
=============idata_writer_cktsd : New Iteration===========
Instance : 7

Inside foo before eval.....
wl=1
win=0
bl=0
blbar=1

Inside foo after eval.....
wl=1
win=1
bl=1
blbar=0
=============isramsd_decoder : New Iteration===========
Instance : 0

Inside foo before eval.....
a=7
enbl=1
d=128

Inside foo after eval.....
a=7
enbl=1
d=128
=============idata_writer_cktsd : New Iteration===========
Instance : 7

Inside foo before eval.....
wl=1
win=1
bl=1
blbar=0

Inside foo after eval.....
wl=0
win=1
bl=0
blbar=1
=============idata_writer_cktsd : New Iteration===========
Instance : 0

Inside foo before eval.....
wl=0
win=1
bl=0
blbar=1

Inside foo after eval.....
wl=1
win=1
bl=1
blbar=0
=============isramsd_decoder : New Iteration===========
Instance : 0

Inside foo before eval.....
a=7
enbl=1
d=128

Inside foo after eval.....
a=7
enbl=1
d=128
=============isramsd_decoder : New Iteration===========
Instance : 0

Inside foo before eval.....
a=7
enbl=1
d=128

Inside foo after eval.....
a=6
enbl=1
d=64
=============idata_writer_cktsd : New Iteration===========
Instance : 0

Inside foo before eval.....
wl=1
win=1
bl=1
blbar=0

Inside foo after eval.....
wl=0
win=1
bl=0
blbar=1
=============idata_writer_cktsd : New Iteration===========
Instance : 1

Inside foo before eval.....
wl=0
win=1
bl=0
blbar=1

Inside foo after eval.....
wl=1
win=1
bl=1
blbar=0
=============isramsd_decoder : New Iteration===========
Instance : 0

Inside foo before eval.....
a=6
enbl=1
d=64

Inside foo after eval.....
a=7
enbl=1
d=128
=============isramsd_decoder : New Iteration===========
Instance : 0

Inside foo before eval.....
a=7
enbl=1
d=128

Inside foo after eval.....
a=7
enbl=1
d=128
=============isramsd_decoder : New Iteration===========
Instance : 0

Inside foo before eval.....
a=7
enbl=1
d=128

Inside foo after eval.....
a=5
enbl=1
d=32
=============isramsd_decoder : New Iteration===========
Instance : 0

Inside foo before eval.....
a=5
enbl=1
d=32

Inside foo after eval.....
a=5
enbl=1
d=32
=============idata_writer_cktsd : New Iteration===========
Instance : 0

Inside foo before eval.....
wl=0
win=1
bl=0
blbar=1

Inside foo after eval.....
wl=1
win=1
bl=1
blbar=0
=============idata_writer_cktsd : New Iteration===========
Instance : 1

Inside foo before eval.....
wl=1
win=1
bl=1
blbar=0

Inside foo after eval.....
wl=0
win=1
bl=0
blbar=1
=============idata_writer_cktsd : New Iteration===========
Instance : 0

Inside foo before eval.....
wl=1
win=1
bl=1
blbar=0

Inside foo after eval.....
wl=0
win=1
bl=0
blbar=1
=============idata_writer_cktsd : New Iteration===========
Instance : 2

Inside foo before eval.....
wl=0
win=1
bl=0
blbar=1

Inside foo after eval.....
wl=1
win=1
bl=1
blbar=0
=============isramsd_decoder : New Iteration===========
Instance : 0

Inside foo before eval.....
a=5
enbl=1
d=32

Inside foo after eval.....
a=5
enbl=1
d=32
=============isramsd_decoder : New Iteration===========
Instance : 0

Inside foo before eval.....
a=5
enbl=1
d=32

Inside foo after eval.....
a=4
enbl=1
d=16
=============idata_writer_cktsd : New Iteration===========
Instance : 2

Inside foo before eval.....
wl=1
win=1
bl=1
blbar=0

Inside foo after eval.....
wl=0
win=1
bl=0
blbar=1
=============idata_writer_cktsd : New Iteration===========
Instance : 3

Inside foo before eval.....
wl=0
win=1
bl=0
blbar=1

Inside foo after eval.....
wl=1
win=1
bl=1
blbar=0
=============isramsd_decoder : New Iteration===========
Instance : 0

Inside foo before eval.....
a=4
enbl=1
d=16

Inside foo after eval.....
a=7
enbl=1
d=128
=============isramsd_decoder : New Iteration===========
Instance : 0

Inside foo before eval.....
a=7
enbl=1
d=128

Inside foo after eval.....
a=7
enbl=1
d=128
=============isramsd_decoder : New Iteration===========
Instance : 0

Inside foo before eval.....
a=7
enbl=1
d=128

Inside foo after eval.....
a=7
enbl=1
d=128
=============isramsd_decoder : New Iteration===========
Instance : 0

Inside foo before eval.....
a=7
enbl=1
d=128

Inside foo after eval.....
a=3
enbl=1
d=8
=============isramsd_decoder : New Iteration===========
Instance : 0

Inside foo before eval.....
a=3
enbl=1
d=8

Inside foo after eval.....
a=3
enbl=1
d=8
=============idata_writer_cktsd : New Iteration===========
Instance : 3

Inside foo before eval.....
wl=1
win=1
bl=1
blbar=0

Inside foo after eval.....
wl=0
win=1
bl=0
blbar=1
=============idata_writer_cktsd : New Iteration===========
Instance : 0

Inside foo before eval.....
wl=0
win=1
bl=0
blbar=1

Inside foo after eval.....
wl=1
win=1
bl=1
blbar=0
=============idata_writer_cktsd : New Iteration===========
Instance : 0

Inside foo before eval.....
wl=1
win=1
bl=1
blbar=0

Inside foo after eval.....
wl=0
win=1
bl=0
blbar=1
=============idata_writer_cktsd : New Iteration===========
Instance : 4

Inside foo before eval.....
wl=0
win=1
bl=0
blbar=1

Inside foo after eval.....
wl=1
win=1
bl=1
blbar=0
=============isramsd_decoder : New Iteration===========
Instance : 0

Inside foo before eval.....
a=3
enbl=1
d=8

Inside foo after eval.....
a=3
enbl=1
d=8
=============isramsd_decoder : New Iteration===========
Instance : 0

Inside foo before eval.....
a=3
enbl=1
d=8

Inside foo after eval.....
a=2
enbl=1
d=4
=============idata_writer_cktsd : New Iteration===========
Instance : 4

Inside foo before eval.....
wl=1
win=1
bl=1
blbar=0

Inside foo after eval.....
wl=0
win=1
bl=0
blbar=1
=============idata_writer_cktsd : New Iteration===========
Instance : 5

Inside foo before eval.....
wl=0
win=1
bl=0
blbar=1

Inside foo after eval.....
wl=1
win=1
bl=1
blbar=0
=============isramsd_decoder : New Iteration===========
Instance : 0

Inside foo before eval.....
a=2
enbl=1
d=4

Inside foo after eval.....
a=3
enbl=1
d=8
=============isramsd_decoder : New Iteration===========
Instance : 0

Inside foo before eval.....
a=3
enbl=1
d=8

Inside foo after eval.....
a=3
enbl=1
d=8
=============isramsd_decoder : New Iteration===========
Instance : 0

Inside foo before eval.....
a=3
enbl=1
d=8

Inside foo after eval.....
a=1
enbl=1
d=2
=============isramsd_decoder : New Iteration===========
Instance : 0

Inside foo before eval.....
a=1
enbl=1
d=2

Inside foo after eval.....
a=1
enbl=1
d=2
=============idata_writer_cktsd : New Iteration===========
Instance : 4

Inside foo before eval.....
wl=0
win=1
bl=0
blbar=1

Inside foo after eval.....
wl=1
win=1
bl=1
blbar=0
=============idata_writer_cktsd : New Iteration===========
Instance : 5

Inside foo before eval.....
wl=1
win=1
bl=1
blbar=0

Inside foo after eval.....
wl=0
win=1
bl=0
blbar=1
=============idata_writer_cktsd : New Iteration===========
Instance : 4

Inside foo before eval.....
wl=1
win=1
bl=1
blbar=0

Inside foo after eval.....
wl=0
win=1
bl=0
blbar=1
=============idata_writer_cktsd : New Iteration===========
Instance : 6

Inside foo before eval.....
wl=0
win=1
bl=0
blbar=1

Inside foo after eval.....
wl=1
win=1
bl=1
blbar=0
=============isramsd_decoder : New Iteration===========
Instance : 0

Inside foo before eval.....
a=1
enbl=1
d=2

Inside foo after eval.....
a=1
enbl=1
d=2
=============isramsd_decoder : New Iteration===========
Instance : 0

Inside foo before eval.....
a=1
enbl=1
d=2

Inside foo after eval.....
a=0
enbl=1
d=1
=============idata_writer_cktsd : New Iteration===========
Instance : 6

Inside foo before eval.....
wl=1
win=1
bl=1
blbar=0

Inside foo after eval.....
wl=0
win=1
bl=0
blbar=1
=============idata_writer_cktsd : New Iteration===========
Instance : 7

Inside foo before eval.....
wl=0
win=1
bl=0
blbar=1

Inside foo after eval.....
wl=1
win=1
bl=1
blbar=0
=============isramsd_decoder : New Iteration===========
Instance : 0

Inside foo before eval.....
a=0
enbl=1
d=1

Inside foo after eval.....
a=7
enbl=1
d=128
=============isramsd_decoder : New Iteration===========
Instance : 0

Inside foo before eval.....
a=7
enbl=1
d=128

Inside foo after eval.....
a=7
enbl=1
d=128
=============idata_writer_cktsd : New Iteration===========
Instance : 0

Inside foo before eval.....
wl=0
win=1
bl=0
blbar=1

Inside foo after eval.....
wl=0
win=0
bl=0
blbar=1
=============idata_writer_cktsd : New Iteration===========
Instance : 1

Inside foo before eval.....
wl=0
win=1
bl=0
blbar=1

Inside foo after eval.....
wl=0
win=0
bl=0
blbar=1
=============idata_writer_cktsd : New Iteration===========
Instance : 2

Inside foo before eval.....
wl=0
win=1
bl=0
blbar=1

Inside foo after eval.....
wl=0
win=0
bl=0
blbar=1
=============idata_writer_cktsd : New Iteration===========
Instance : 3

Inside foo before eval.....
wl=0
win=1
bl=0
blbar=1

Inside foo after eval.....
wl=0
win=0
bl=0
blbar=1
=============idata_writer_cktsd : New Iteration===========
Instance : 4

Inside foo before eval.....
wl=0
win=1
bl=0
blbar=1

Inside foo after eval.....
wl=0
win=0
bl=0
blbar=1
=============idata_writer_cktsd : New Iteration===========
Instance : 5

Inside foo before eval.....
wl=0
win=1
bl=0
blbar=1

Inside foo after eval.....
wl=0
win=0
bl=0
blbar=1
=============idata_writer_cktsd : New Iteration===========
Instance : 6

Inside foo before eval.....
wl=0
win=1
bl=0
blbar=1

Inside foo after eval.....
wl=0
win=0
bl=0
blbar=1
=============idata_writer_cktsd : New Iteration===========
Instance : 7

Inside foo before eval.....
wl=1
win=1
bl=1
blbar=0

Inside foo after eval.....
wl=1
win=0
bl=0
blbar=1
=============idata_writer_cktsd : New Iteration===========
Instance : 7

Inside foo before eval.....
wl=1
win=0
bl=0
blbar=1

Inside foo after eval.....
wl=0
win=0
bl=0
blbar=1
=============idata_writer_cktsd : New Iteration===========
Instance : 0

Inside foo before eval.....
wl=0
win=0
bl=0
blbar=1

Inside foo after eval.....
wl=1
win=0
bl=0
blbar=1
=============isramsd_decoder : New Iteration===========
Instance : 0

Inside foo before eval.....
a=7
enbl=1
d=128

Inside foo after eval.....
a=7
enbl=1
d=128
=============isramsd_decoder : New Iteration===========
Instance : 0

Inside foo before eval.....
a=7
enbl=1
d=128

Inside foo after eval.....
a=6
enbl=1
d=64
=============idata_writer_cktsd : New Iteration===========
Instance : 0

Inside foo before eval.....
wl=1
win=0
bl=0
blbar=1

Inside foo after eval.....
wl=0
win=0
bl=0
blbar=1
=============idata_writer_cktsd : New Iteration===========
Instance : 1

Inside foo before eval.....
wl=0
win=0
bl=0
blbar=1

Inside foo after eval.....
wl=1
win=0
bl=0
blbar=1
=============isramsd_decoder : New Iteration===========
Instance : 0

Inside foo before eval.....
a=6
enbl=1
d=64

Inside foo after eval.....
a=7
enbl=1
d=128
=============isramsd_decoder : New Iteration===========
Instance : 0

Inside foo before eval.....
a=7
enbl=1
d=128

Inside foo after eval.....
a=7
enbl=1
d=128
=============isramsd_decoder : New Iteration===========
Instance : 0

Inside foo before eval.....
a=7
enbl=1
d=128

Inside foo after eval.....
a=5
enbl=1
d=32
=============idata_writer_cktsd : New Iteration===========
Instance : 1

Inside foo before eval.....
wl=1
win=0
bl=0
blbar=1

Inside foo after eval.....
wl=0
win=0
bl=0
blbar=1
=============idata_writer_cktsd : New Iteration===========
Instance : 0

Inside foo before eval.....
wl=0
win=0
bl=0
blbar=1

Inside foo after eval.....
wl=1
win=0
bl=0
blbar=1
=============idata_writer_cktsd : New Iteration===========
Instance : 0

Inside foo before eval.....
wl=1
win=0
bl=0
blbar=1

Inside foo after eval.....
wl=0
win=0
bl=0
blbar=1
=============idata_writer_cktsd : New Iteration===========
Instance : 2

Inside foo before eval.....
wl=0
win=0
bl=0
blbar=1

Inside foo after eval.....
wl=1
win=0
bl=0
blbar=1
=============isramsd_decoder : New Iteration===========
Instance : 0

Inside foo before eval.....
a=5
enbl=1
d=32

Inside foo after eval.....
a=5
enbl=1
d=32
=============isramsd_decoder : New Iteration===========
Instance : 0

Inside foo before eval.....
a=5
enbl=1
d=32

Inside foo after eval.....
a=4
enbl=1
d=16
=============idata_writer_cktsd : New Iteration===========
Instance : 2

Inside foo before eval.....
wl=1
win=0
bl=0
blbar=1

Inside foo after eval.....
wl=0
win=0
bl=0
blbar=1
=============idata_writer_cktsd : New Iteration===========
Instance : 3

Inside foo before eval.....
wl=0
win=0
bl=0
blbar=1

Inside foo after eval.....
wl=1
win=0
bl=0
blbar=1
=============isramsd_decoder : New Iteration===========
Instance : 0

Inside foo before eval.....
a=4
enbl=1
d=16

Inside foo after eval.....
a=7
enbl=1
d=128
=============isramsd_decoder : New Iteration===========
Instance : 0

Inside foo before eval.....
a=7
enbl=1
d=128

Inside foo after eval.....
a=7
enbl=1
d=128
=============isramsd_decoder : New Iteration===========
Instance : 0

Inside foo before eval.....
a=7
enbl=1
d=128

Inside foo after eval.....
a=3
enbl=1
d=8
=============idata_writer_cktsd : New Iteration===========
Instance : 3

Inside foo before eval.....
wl=1
win=0
bl=0
blbar=1

Inside foo after eval.....
wl=0
win=0
bl=0
blbar=1
=============idata_writer_cktsd : New Iteration===========
Instance : 0

Inside foo before eval.....
wl=0
win=0
bl=0
blbar=1

Inside foo after eval.....
wl=1
win=0
bl=0
blbar=1
=============idata_writer_cktsd : New Iteration===========
Instance : 0

Inside foo before eval.....
wl=1
win=0
bl=0
blbar=1

Inside foo after eval.....
wl=0
win=0
bl=0
blbar=1
=============idata_writer_cktsd : New Iteration===========
Instance : 4

Inside foo before eval.....
wl=0
win=0
bl=0
blbar=1

Inside foo after eval.....
wl=1
win=0
bl=0
blbar=1
=============isramsd_decoder : New Iteration===========
Instance : 0

Inside foo before eval.....
a=3
enbl=1
d=8

Inside foo after eval.....
a=3
enbl=1
d=8
=============isramsd_decoder : New Iteration===========
Instance : 0

Inside foo before eval.....
a=3
enbl=1
d=8

Inside foo after eval.....
a=2
enbl=1
d=4
=============idata_writer_cktsd : New Iteration===========
Instance : 4

Inside foo before eval.....
wl=1
win=0
bl=0
blbar=1

Inside foo after eval.....
wl=0
win=0
bl=0
blbar=1
=============idata_writer_cktsd : New Iteration===========
Instance : 5

Inside foo before eval.....
wl=0
win=0
bl=0
blbar=1

Inside foo after eval.....
wl=1
win=0
bl=0
blbar=1
=============isramsd_decoder : New Iteration===========
Instance : 0

Inside foo before eval.....
a=2
enbl=1
d=4

Inside foo after eval.....
a=3
enbl=1
d=8
=============idata_writer_cktsd : New Iteration===========
Instance : 0

Inside foo before eval.....
wl=0
win=0
bl=0
blbar=1

Inside foo after eval.....
wl=0
win=1
bl=0
blbar=1
=============idata_writer_cktsd : New Iteration===========
Instance : 1

Inside foo before eval.....
wl=0
win=0
bl=0
blbar=1

Inside foo after eval.....
wl=0
win=1
bl=0
blbar=1
=============idata_writer_cktsd : New Iteration===========
Instance : 2

Inside foo before eval.....
wl=0
win=0
bl=0
blbar=1

Inside foo after eval.....
wl=0
win=1
bl=0
blbar=1
=============idata_writer_cktsd : New Iteration===========
Instance : 3

Inside foo before eval.....
wl=0
win=0
bl=0
blbar=1

Inside foo after eval.....
wl=0
win=1
bl=0
blbar=1
=============idata_writer_cktsd : New Iteration===========
Instance : 4

Inside foo before eval.....
wl=0
win=0
bl=0
blbar=1

Inside foo after eval.....
wl=0
win=1
bl=0
blbar=1
=============idata_writer_cktsd : New Iteration===========
Instance : 5

Inside foo before eval.....
wl=1
win=0
bl=0
blbar=1

Inside foo after eval.....
wl=1
win=1
bl=1
blbar=0
=============idata_writer_cktsd : New Iteration===========
Instance : 6

Inside foo before eval.....
wl=0
win=0
bl=0
blbar=1

Inside foo after eval.....
wl=0
win=1
bl=0
blbar=1
=============idata_writer_cktsd : New Iteration===========
Instance : 7

Inside foo before eval.....
wl=0
win=0
bl=0
blbar=1

Inside foo after eval.....
wl=0
win=1
bl=0
blbar=1
=============isramsd_decoder : New Iteration===========
Instance : 0

Inside foo before eval.....
a=3
enbl=1
d=8

Inside foo after eval.....
a=3
enbl=1
d=8
=============isramsd_decoder : New Iteration===========
Instance : 0

Inside foo before eval.....
a=3
enbl=1
d=8

Inside foo after eval.....
a=1
enbl=1
d=2
=============idata_writer_cktsd : New Iteration===========
Instance : 5

Inside foo before eval.....
wl=1
win=1
bl=1
blbar=0

Inside foo after eval.....
wl=0
win=1
bl=0
blbar=1
=============idata_writer_cktsd : New Iteration===========
Instance : 4

Inside foo before eval.....
wl=0
win=1
bl=0
blbar=1

Inside foo after eval.....
wl=1
win=1
bl=1
blbar=0
=============idata_writer_cktsd : New Iteration===========
Instance : 4

Inside foo before eval.....
wl=1
win=1
bl=1
blbar=0

Inside foo after eval.....
wl=0
win=1
bl=0
blbar=1
=============idata_writer_cktsd : New Iteration===========
Instance : 6

Inside foo before eval.....
wl=0
win=1
bl=0
blbar=1

Inside foo after eval.....
wl=1
win=1
bl=1
blbar=0
=============isramsd_decoder : New Iteration===========
Instance : 0

Inside foo before eval.....
a=1
enbl=1
d=2

Inside foo after eval.....
a=1
enbl=1
d=2
=============isramsd_decoder : New Iteration===========
Instance : 0

Inside foo before eval.....
a=1
enbl=1
d=2

Inside foo after eval.....
a=0
enbl=1
d=1
=============idata_writer_cktsd : New Iteration===========
Instance : 6

Inside foo before eval.....
wl=1
win=1
bl=1
blbar=0

Inside foo after eval.....
wl=0
win=1
bl=0
blbar=1
=============idata_writer_cktsd : New Iteration===========
Instance : 7

Inside foo before eval.....
wl=0
win=1
bl=0
blbar=1

Inside foo after eval.....
wl=1
win=1
bl=1
blbar=0
=============isramsd_decoder : New Iteration===========
Instance : 0

Inside foo before eval.....
a=0
enbl=1
d=1

Inside foo after eval.....
a=7
enbl=1
d=128
=============isramsd_decoder : New Iteration===========
Instance : 0

Inside foo before eval.....
a=7
enbl=1
d=128

Inside foo after eval.....
a=7
enbl=1
d=128
=============isramsd_decoder : New Iteration===========
Instance : 0

Inside foo before eval.....
a=7
enbl=1
d=128

Inside foo after eval.....
a=7
enbl=1
d=128
=============idata_writer_cktsd : New Iteration===========
Instance : 0

Inside foo before eval.....
wl=0
win=1
bl=0
blbar=1

Inside foo after eval.....
wl=1
win=1
bl=1
blbar=0
=============idata_writer_cktsd : New Iteration===========
Instance : 7

Inside foo before eval.....
wl=1
win=1
bl=1
blbar=0

Inside foo after eval.....
wl=0
win=1
bl=0
blbar=1
=============isramsd_decoder : New Iteration===========
Instance : 0

Inside foo before eval.....
a=7
enbl=1
d=128

Inside foo after eval.....
a=7
enbl=1
d=128
=============isramsd_decoder : New Iteration===========
Instance : 0

Inside foo before eval.....
a=7
enbl=1
d=128

Inside foo after eval.....
a=6
enbl=1
d=64
=============idata_writer_cktsd : New Iteration===========
Instance : 0

Inside foo before eval.....
wl=1
win=1
bl=1
blbar=0

Inside foo after eval.....
wl=0
win=1
bl=0
blbar=1
=============idata_writer_cktsd : New Iteration===========
Instance : 1

Inside foo before eval.....
wl=0
win=1
bl=0
blbar=1

Inside foo after eval.....
wl=1
win=1
bl=1
blbar=0
=============isramsd_decoder : New Iteration===========
Instance : 0

Inside foo before eval.....
a=6
enbl=1
d=64

Inside foo after eval.....
a=7
enbl=1
d=128
=============isramsd_decoder : New Iteration===========
Instance : 0

Inside foo before eval.....
a=7
enbl=1
d=128

Inside foo after eval.....
a=7
enbl=1
d=128
=============isramsd_decoder : New Iteration===========
Instance : 0

Inside foo before eval.....
a=7
enbl=1
d=128

Inside foo after eval.....
a=7
enbl=1
d=128
=============isramsd_decoder : New Iteration===========
Instance : 0

Inside foo before eval.....
a=7
enbl=1
d=128

Inside foo after eval.....
a=5
enbl=1
d=32
=============isramsd_decoder : New Iteration===========
Instance : 0

Inside foo before eval.....
a=5
enbl=1
d=32

Inside foo after eval.....
a=5
enbl=1
d=32
=============idata_writer_cktsd : New Iteration===========
Instance : 0

Inside foo before eval.....
wl=0
win=1
bl=0
blbar=1

Inside foo after eval.....
wl=1
win=1
bl=1
blbar=0
=============idata_writer_cktsd : New Iteration===========
Instance : 1

Inside foo before eval.....
wl=1
win=1
bl=1
blbar=0

Inside foo after eval.....
wl=0
win=1
bl=0
blbar=1
=============idata_writer_cktsd : New Iteration===========
Instance : 0

Inside foo before eval.....
wl=1
win=1
bl=1
blbar=0

Inside foo after eval.....
wl=0
win=1
bl=0
blbar=1
=============idata_writer_cktsd : New Iteration===========
Instance : 2

Inside foo before eval.....
wl=0
win=1
bl=0
blbar=1

Inside foo after eval.....
wl=1
win=1
bl=1
blbar=0
=============isramsd_decoder : New Iteration===========
Instance : 0

Inside foo before eval.....
a=5
enbl=1
d=32

Inside foo after eval.....
a=5
enbl=1
d=32
=============isramsd_decoder : New Iteration===========
Instance : 0

Inside foo before eval.....
a=5
enbl=1
d=32

Inside foo after eval.....
a=4
enbl=1
d=16
=============idata_writer_cktsd : New Iteration===========
Instance : 2

Inside foo before eval.....
wl=1
win=1
bl=1
blbar=0

Inside foo after eval.....
wl=0
win=1
bl=0
blbar=1
=============idata_writer_cktsd : New Iteration===========
Instance : 3

Inside foo before eval.....
wl=0
win=1
bl=0
blbar=1

Inside foo after eval.....
wl=1
win=1
bl=1
blbar=0

No. of Data Rows : 1842
ERROR: (internal)  This operation is not defined for display type PrinterOnly.
Can't open viewport for graphics.
binary raw file "/home/inderjitsingh/eSim-Workspace/8_bit_sram/8_bit_sram.raw"
Reducing trtol to 1 for xspice 'A' devices
Doing analysis at TEMP = 27.000000 and TNOM = 27.000000

Warning: include: has no value, DC 0 assumed
Warning: v6: no DC value, transient time 0 value used
Warning: v5: no DC value, transient time 0 value used
Warning: v3: no DC value, transient time 0 value used
Warning: v2: no DC value, transient time 0 value used
Warning: v1: no DC value, transient time 0 value used
No. of Data Columns : 423  
=============idata_writer_cktsd : New Iteration===========
Instance : 8

Inside foo before eval.....
wl=0
win=0
bl=0
blbar=0

Inside foo after eval.....
wl=0
win=0
bl=0
blbar=1
=============idata_writer_cktsd : New Iteration===========
Instance : 9

Inside foo before eval.....
wl=0
win=0
bl=0
blbar=0

Inside foo after eval.....
wl=0
win=0
bl=0
blbar=1
=============idata_writer_cktsd : New Iteration===========
Instance : 10

Inside foo before eval.....
wl=0
win=0
bl=0
blbar=0

Inside foo after eval.....
wl=0
win=0
bl=0
blbar=1
=============idata_writer_cktsd : New Iteration===========
Instance : 11

Inside foo before eval.....
wl=0
win=0
bl=0
blbar=0

Inside foo after eval.....
wl=0
win=0
bl=0
blbar=1
=============idata_writer_cktsd : New Iteration===========
Instance : 12

Inside foo before eval.....
wl=0
win=0
bl=0
blbar=0

Inside foo after eval.....
wl=0
win=0
bl=0
blbar=1
=============idata_writer_cktsd : New Iteration===========
Instance : 13

Inside foo before eval.....
wl=0
win=0
bl=0
blbar=0

Inside foo after eval.....
wl=0
win=0
bl=0
blbar=1
=============idata_writer_cktsd : New Iteration===========
Instance : 14

Inside foo before eval.....
wl=0
win=0
bl=0
blbar=0

Inside foo after eval.....
wl=0
win=0
bl=0
blbar=1
=============idata_writer_cktsd : New Iteration===========
Instance : 15

Inside foo before eval.....
wl=0
win=0
bl=0
blbar=0

Inside foo after eval.....
wl=0
win=0
bl=0
blbar=1
=============isramsd_decoder : New Iteration===========
Instance : 1

Inside foo before eval.....
a=0
enbl=0
d=0

Inside foo after eval.....
a=0
enbl=0
d=0
=============idata_writer_cktsd : New Iteration===========
Instance : 8

Inside foo before eval.....
wl=0
win=0
bl=0
blbar=1

Inside foo after eval.....
wl=0
win=0
bl=0
blbar=1
=============idata_writer_cktsd : New Iteration===========
Instance : 9

Inside foo before eval.....
wl=0
win=0
bl=0
blbar=1

Inside foo after eval.....
wl=0
win=0
bl=0
blbar=1
=============idata_writer_cktsd : New Iteration===========
Instance : 10

Inside foo before eval.....
wl=0
win=0
bl=0
blbar=1

Inside foo after eval.....
wl=0
win=0
bl=0
blbar=1
=============idata_writer_cktsd : New Iteration===========
Instance : 11

Inside foo before eval.....
wl=0
win=0
bl=0
blbar=1

Inside foo after eval.....
wl=0
win=0
bl=0
blbar=1
=============idata_writer_cktsd : New Iteration===========
Instance : 12

Inside foo before eval.....
wl=0
win=0
bl=0
blbar=1

Inside foo after eval.....
wl=0
win=0
bl=0
blbar=1
=============idata_writer_cktsd : New Iteration===========
Instance : 13

Inside foo before eval.....
wl=0
win=0
bl=0
blbar=1

Inside foo after eval.....
wl=0
win=0
bl=0
blbar=1
=============idata_writer_cktsd : New Iteration===========
Instance : 14

Inside foo before eval.....
wl=0
win=0
bl=0
blbar=1

Inside foo after eval.....
wl=0
win=0
bl=0
blbar=1
=============idata_writer_cktsd : New Iteration===========
Instance : 15

Inside foo before eval.....
wl=0
win=0
bl=0
blbar=1

Inside foo after eval.....
wl=0
win=0
bl=0
blbar=1
=============isramsd_decoder : New Iteration===========
Instance : 1

Inside foo before eval.....
a=0
enbl=0
d=0

Inside foo after eval.....
a=0
enbl=0
d=0
=============isramsd_decoder : New Iteration===========
Instance : 1

Inside foo before eval.....
a=0
enbl=0
d=0

Inside foo after eval.....
a=0
enbl=1
d=1
=============idata_writer_cktsd : New Iteration===========
Instance : 15

Inside foo before eval.....
wl=0
win=0
bl=0
blbar=1

Inside foo after eval.....
wl=1
win=0
bl=0
blbar=1
=============isramsd_decoder : New Iteration===========
Instance : 1

Inside foo before eval.....
a=0
enbl=1
d=1

Inside foo after eval.....
a=7
enbl=1
d=128
=============idata_writer_cktsd : New Iteration===========
Instance : 8

Inside foo before eval.....
wl=0
win=0
bl=0
blbar=1

Inside foo after eval.....
wl=0
win=1
bl=0
blbar=1
=============idata_writer_cktsd : New Iteration===========
Instance : 9

Inside foo before eval.....
wl=0
win=0
bl=0
blbar=1

Inside foo after eval.....
wl=0
win=1
bl=0
blbar=1
=============idata_writer_cktsd : New Iteration===========
Instance : 10

Inside foo before eval.....
wl=0
win=0
bl=0
blbar=1

Inside foo after eval.....
wl=0
win=1
bl=0
blbar=1
=============idata_writer_cktsd : New Iteration===========
Instance : 11

Inside foo before eval.....
wl=0
win=0
bl=0
blbar=1

Inside foo after eval.....
wl=0
win=1
bl=0
blbar=1
=============idata_writer_cktsd : New Iteration===========
Instance : 12

Inside foo before eval.....
wl=0
win=0
bl=0
blbar=1

Inside foo after eval.....
wl=0
win=1
bl=0
blbar=1
=============idata_writer_cktsd : New Iteration===========
Instance : 13

Inside foo before eval.....
wl=0
win=0
bl=0
blbar=1

Inside foo after eval.....
wl=0
win=1
bl=0
blbar=1
=============idata_writer_cktsd : New Iteration===========
Instance : 14

Inside foo before eval.....
wl=0
win=0
bl=0
blbar=1

Inside foo after eval.....
wl=0
win=1
bl=0
blbar=1
=============idata_writer_cktsd : New Iteration===========
Instance : 15

Inside foo before eval.....
wl=1
win=0
bl=0
blbar=1

Inside foo after eval.....
wl=1
win=1
bl=1
blbar=0
=============isramsd_decoder : New Iteration===========
Instance : 1

Inside foo before eval.....
a=7
enbl=1
d=128

Inside foo after eval.....
a=7
enbl=1
d=128
=============idata_writer_cktsd : New Iteration===========
Instance : 15

Inside foo before eval.....
wl=1
win=1
bl=1
blbar=0

Inside foo after eval.....
wl=0
win=1
bl=0
blbar=1
=============idata_writer_cktsd : New Iteration===========
Instance : 8

Inside foo before eval.....
wl=0
win=1
bl=0
blbar=1

Inside foo after eval.....
wl=1
win=1
bl=1
blbar=0
=============isramsd_decoder : New Iteration===========
Instance : 1

Inside foo before eval.....
a=7
enbl=1
d=128

Inside foo after eval.....
a=7
enbl=1
d=128
=============isramsd_decoder : New Iteration===========
Instance : 1

Inside foo before eval.....
a=7
enbl=1
d=128

Inside foo after eval.....
a=6
enbl=1
d=64
=============idata_writer_cktsd : New Iteration===========
Instance : 8

Inside foo before eval.....
wl=1
win=1
bl=1
blbar=0

Inside foo after eval.....
wl=0
win=1
bl=0
blbar=1
=============idata_writer_cktsd : New Iteration===========
Instance : 9

Inside foo before eval.....
wl=0
win=1
bl=0
blbar=1

Inside foo after eval.....
wl=1
win=1
bl=1
blbar=0
=============isramsd_decoder : New Iteration===========
Instance : 1

Inside foo before eval.....
a=6
enbl=1
d=64

Inside foo after eval.....
a=7
enbl=1
d=128
=============isramsd_decoder : New Iteration===========
Instance : 1

Inside foo before eval.....
a=7
enbl=1
d=128

Inside foo after eval.....
a=7
enbl=1
d=128
=============isramsd_decoder : New Iteration===========
Instance : 1

Inside foo before eval.....
a=7
enbl=1
d=128

Inside foo after eval.....
a=5
enbl=1
d=32
=============isramsd_decoder : New Iteration===========
Instance : 1

Inside foo before eval.....
a=5
enbl=1
d=32

Inside foo after eval.....
a=5
enbl=1
d=32
=============idata_writer_cktsd : New Iteration===========
Instance : 8

Inside foo before eval.....
wl=0
win=1
bl=0
blbar=1

Inside foo after eval.....
wl=1
win=1
bl=1
blbar=0
=============idata_writer_cktsd : New Iteration===========
Instance : 9

Inside foo before eval.....
wl=1
win=1
bl=1
blbar=0

Inside foo after eval.....
wl=0
win=1
bl=0
blbar=1
=============idata_writer_cktsd : New Iteration===========
Instance : 8

Inside foo before eval.....
wl=1
win=1
bl=1
blbar=0

Inside foo after eval.....
wl=0
win=1
bl=0
blbar=1
=============idata_writer_cktsd : New Iteration===========
Instance : 10

Inside foo before eval.....
wl=0
win=1
bl=0
blbar=1

Inside foo after eval.....
wl=1
win=1
bl=1
blbar=0
=============isramsd_decoder : New Iteration===========
Instance : 1

Inside foo before eval.....
a=5
enbl=1
d=32

Inside foo after eval.....
a=5
enbl=1
d=32
=============isramsd_decoder : New Iteration===========
Instance : 1

Inside foo before eval.....
a=5
enbl=1
d=32

Inside foo after eval.....
a=4
enbl=1
d=16
=============idata_writer_cktsd : New Iteration===========
Instance : 10

Inside foo before eval.....
wl=1
win=1
bl=1
blbar=0

Inside foo after eval.....
wl=0
win=1
bl=0
blbar=1
=============idata_writer_cktsd : New Iteration===========
Instance : 11

Inside foo before eval.....
wl=0
win=1
bl=0
blbar=1

Inside foo after eval.....
wl=1
win=1
bl=1
blbar=0
=============isramsd_decoder : New Iteration===========
Instance : 1

Inside foo before eval.....
a=4
enbl=1
d=16

Inside foo after eval.....
a=7
enbl=1
d=128
=============isramsd_decoder : New Iteration===========
Instance : 1

Inside foo before eval.....
a=7
enbl=1
d=128

Inside foo after eval.....
a=7
enbl=1
d=128
=============isramsd_decoder : New Iteration===========
Instance : 1

Inside foo before eval.....
a=7
enbl=1
d=128

Inside foo after eval.....
a=7
enbl=1
d=128
=============isramsd_decoder : New Iteration===========
Instance : 1

Inside foo before eval.....
a=7
enbl=1
d=128

Inside foo after eval.....
a=3
enbl=1
d=8
=============isramsd_decoder : New Iteration===========
Instance : 1

Inside foo before eval.....
a=3
enbl=1
d=8

Inside foo after eval.....
a=3
enbl=1
d=8
=============idata_writer_cktsd : New Iteration===========
Instance : 11

Inside foo before eval.....
wl=1
win=1
bl=1
blbar=0

Inside foo after eval.....
wl=0
win=1
bl=0
blbar=1
=============idata_writer_cktsd : New Iteration===========
Instance : 8

Inside foo before eval.....
wl=0
win=1
bl=0
blbar=1

Inside foo after eval.....
wl=1
win=1
bl=1
blbar=0
=============idata_writer_cktsd : New Iteration===========
Instance : 8

Inside foo before eval.....
wl=1
win=1
bl=1
blbar=0

Inside foo after eval.....
wl=0
win=1
bl=0
blbar=1
=============idata_writer_cktsd : New Iteration===========
Instance : 12

Inside foo before eval.....
wl=0
win=1
bl=0
blbar=1

Inside foo after eval.....
wl=1
win=1
bl=1
blbar=0
=============isramsd_decoder : New Iteration===========
Instance : 1

Inside foo before eval.....
a=3
enbl=1
d=8

Inside foo after eval.....
a=3
enbl=1
d=8
=============isramsd_decoder : New Iteration===========
Instance : 1

Inside foo before eval.....
a=3
enbl=1
d=8

Inside foo after eval.....
a=2
enbl=1
d=4
=============idata_writer_cktsd : New Iteration===========
Instance : 12

Inside foo before eval.....
wl=1
win=1
bl=1
blbar=0

Inside foo after eval.....
wl=0
win=1
bl=0
blbar=1
=============idata_writer_cktsd : New Iteration===========
Instance : 13

Inside foo before eval.....
wl=0
win=1
bl=0
blbar=1

Inside foo after eval.....
wl=1
win=1
bl=1
blbar=0
=============isramsd_decoder : New Iteration===========
Instance : 1

Inside foo before eval.....
a=2
enbl=1
d=4

Inside foo after eval.....
a=3
enbl=1
d=8
=============isramsd_decoder : New Iteration===========
Instance : 1

Inside foo before eval.....
a=3
enbl=1
d=8

Inside foo after eval.....
a=3
enbl=1
d=8
=============isramsd_decoder : New Iteration===========
Instance : 1

Inside foo before eval.....
a=3
enbl=1
d=8

Inside foo after eval.....
a=1
enbl=1
d=2
=============isramsd_decoder : New Iteration===========
Instance : 1

Inside foo before eval.....
a=1
enbl=1
d=2

Inside foo after eval.....
a=1
enbl=1
d=2
=============idata_writer_cktsd : New Iteration===========
Instance : 12

Inside foo before eval.....
wl=0
win=1
bl=0
blbar=1

Inside foo after eval.....
wl=1
win=1
bl=1
blbar=0
=============idata_writer_cktsd : New Iteration===========
Instance : 13

Inside foo before eval.....
wl=1
win=1
bl=1
blbar=0

Inside foo after eval.....
wl=0
win=1
bl=0
blbar=1
=============idata_writer_cktsd : New Iteration===========
Instance : 12

Inside foo before eval.....
wl=1
win=1
bl=1
blbar=0

Inside foo after eval.....
wl=0
win=1
bl=0
blbar=1
=============idata_writer_cktsd : New Iteration===========
Instance : 14

Inside foo before eval.....
wl=0
win=1
bl=0
blbar=1

Inside foo after eval.....
wl=1
win=1
bl=1
blbar=0
=============isramsd_decoder : New Iteration===========
Instance : 1

Inside foo before eval.....
a=1
enbl=1
d=2

Inside foo after eval.....
a=1
enbl=1
d=2
=============isramsd_decoder : New Iteration===========
Instance : 1

Inside foo before eval.....
a=1
enbl=1
d=2

Inside foo after eval.....
a=0
enbl=1
d=1
=============idata_writer_cktsd : New Iteration===========
Instance : 14

Inside foo before eval.....
wl=1
win=1
bl=1
blbar=0

Inside foo after eval.....
wl=0
win=1
bl=0
blbar=1
=============idata_writer_cktsd : New Iteration===========
Instance : 15

Inside foo before eval.....
wl=0
win=1
bl=0
blbar=1

Inside foo after eval.....
wl=1
win=1
bl=1
blbar=0
=============isramsd_decoder : New Iteration===========
Instance : 1

Inside foo before eval.....
a=0
enbl=1
d=1

Inside foo after eval.....
a=7
enbl=1
d=128
=============isramsd_decoder : New Iteration===========
Instance : 1

Inside foo before eval.....
a=7
enbl=1
d=128

Inside foo after eval.....
a=7
enbl=1
d=128
=============idata_writer_cktsd : New Iteration===========
Instance : 8

Inside foo before eval.....
wl=0
win=1
bl=0
blbar=1

Inside foo after eval.....
wl=0
win=0
bl=0
blbar=1
=============idata_writer_cktsd : New Iteration===========
Instance : 9

Inside foo before eval.....
wl=0
win=1
bl=0
blbar=1

Inside foo after eval.....
wl=0
win=0
bl=0
blbar=1
=============idata_writer_cktsd : New Iteration===========
Instance : 10

Inside foo before eval.....
wl=0
win=1
bl=0
blbar=1

Inside foo after eval.....
wl=0
win=0
bl=0
blbar=1
=============idata_writer_cktsd : New Iteration===========
Instance : 11

Inside foo before eval.....
wl=0
win=1
bl=0
blbar=1

Inside foo after eval.....
wl=0
win=0
bl=0
blbar=1
=============idata_writer_cktsd : New Iteration===========
Instance : 12

Inside foo before eval.....
wl=0
win=1
bl=0
blbar=1

Inside foo after eval.....
wl=0
win=0
bl=0
blbar=1
=============idata_writer_cktsd : New Iteration===========
Instance : 13

Inside foo before eval.....
wl=0
win=1
bl=0
blbar=1

Inside foo after eval.....
wl=0
win=0
bl=0
blbar=1
=============idata_writer_cktsd : New Iteration===========
Instance : 14

Inside foo before eval.....
wl=0
win=1
bl=0
blbar=1

Inside foo after eval.....
wl=0
win=0
bl=0
blbar=1
=============idata_writer_cktsd : New Iteration===========
Instance : 15

Inside foo before eval.....
wl=1
win=1
bl=1
blbar=0

Inside foo after eval.....
wl=1
win=0
bl=0
blbar=1
=============idata_writer_cktsd : New Iteration===========
Instance : 15

Inside foo before eval.....
wl=1
win=0
bl=0
blbar=1

Inside foo after eval.....
wl=0
win=0
bl=0
blbar=1
=============idata_writer_cktsd : New Iteration===========
Instance : 8

Inside foo before eval.....
wl=0
win=0
bl=0
blbar=1

Inside foo after eval.....
wl=1
win=0
bl=0
blbar=1
=============isramsd_decoder : New Iteration===========
Instance : 1

Inside foo before eval.....
a=7
enbl=1
d=128

Inside foo after eval.....
a=7
enbl=1
d=128
=============isramsd_decoder : New Iteration===========
Instance : 1

Inside foo before eval.....
a=7
enbl=1
d=128

Inside foo after eval.....
a=6
enbl=1
d=64
=============idata_writer_cktsd : New Iteration===========
Instance : 8

Inside foo before eval.....
wl=1
win=0
bl=0
blbar=1

Inside foo after eval.....
wl=0
win=0
bl=0
blbar=1
=============idata_writer_cktsd : New Iteration===========
Instance : 9

Inside foo before eval.....
wl=0
win=0
bl=0
blbar=1

Inside foo after eval.....
wl=1
win=0
bl=0
blbar=1
=============isramsd_decoder : New Iteration===========
Instance : 1

Inside foo before eval.....
a=6
enbl=1
d=64

Inside foo after eval.....
a=7
enbl=1
d=128
=============isramsd_decoder : New Iteration===========
Instance : 1

Inside foo before eval.....
a=7
enbl=1
d=128

Inside foo after eval.....
a=7
enbl=1
d=128
=============isramsd_decoder : New Iteration===========
Instance : 1

Inside foo before eval.....
a=7
enbl=1
d=128

Inside foo after eval.....
a=5
enbl=1
d=32
=============idata_writer_cktsd : New Iteration===========
Instance : 9

Inside foo before eval.....
wl=1
win=0
bl=0
blbar=1

Inside foo after eval.....
wl=0
win=0
bl=0
blbar=1
=============idata_writer_cktsd : New Iteration===========
Instance : 8

Inside foo before eval.....
wl=0
win=0
bl=0
blbar=1

Inside foo after eval.....
wl=1
win=0
bl=0
blbar=1
=============idata_writer_cktsd : New Iteration===========
Instance : 8

Inside foo before eval.....
wl=1
win=0
bl=0
blbar=1

Inside foo after eval.....
wl=0
win=0
bl=0
blbar=1
=============idata_writer_cktsd : New Iteration===========
Instance : 10

Inside foo before eval.....
wl=0
win=0
bl=0
blbar=1

Inside foo after eval.....
wl=1
win=0
bl=0
blbar=1
=============isramsd_decoder : New Iteration===========
Instance : 1

Inside foo before eval.....
a=5
enbl=1
d=32

Inside foo after eval.....
a=5
enbl=1
d=32
=============isramsd_decoder : New Iteration===========
Instance : 1

Inside foo before eval.....
a=5
enbl=1
d=32

Inside foo after eval.....
a=4
enbl=1
d=16
=============idata_writer_cktsd : New Iteration===========
Instance : 10

Inside foo before eval.....
wl=1
win=0
bl=0
blbar=1

Inside foo after eval.....
wl=0
win=0
bl=0
blbar=1
=============idata_writer_cktsd : New Iteration===========
Instance : 11

Inside foo before eval.....
wl=0
win=0
bl=0
blbar=1

Inside foo after eval.....
wl=1
win=0
bl=0
blbar=1
=============isramsd_decoder : New Iteration===========
Instance : 1

Inside foo before eval.....
a=4
enbl=1
d=16

Inside foo after eval.....
a=7
enbl=1
d=128
=============isramsd_decoder : New Iteration===========
Instance : 1

Inside foo before eval.....
a=7
enbl=1
d=128

Inside foo after eval.....
a=7
enbl=1
d=128
=============isramsd_decoder : New Iteration===========
Instance : 1

Inside foo before eval.....
a=7
enbl=1
d=128

Inside foo after eval.....
a=3
enbl=1
d=8
=============idata_writer_cktsd : New Iteration===========
Instance : 11

Inside foo before eval.....
wl=1
win=0
bl=0
blbar=1

Inside foo after eval.....
wl=0
win=0
bl=0
blbar=1
=============idata_writer_cktsd : New Iteration===========
Instance : 8

Inside foo before eval.....
wl=0
win=0
bl=0
blbar=1

Inside foo after eval.....
wl=1
win=0
bl=0
blbar=1
=============idata_writer_cktsd : New Iteration===========
Instance : 8

Inside foo before eval.....
wl=1
win=0
bl=0
blbar=1

Inside foo after eval.....
wl=0
win=0
bl=0
blbar=1
=============idata_writer_cktsd : New Iteration===========
Instance : 12

Inside foo before eval.....
wl=0
win=0
bl=0
blbar=1

Inside foo after eval.....
wl=1
win=0
bl=0
blbar=1
=============isramsd_decoder : New Iteration===========
Instance : 1

Inside foo before eval.....
a=3
enbl=1
d=8

Inside foo after eval.....
a=3
enbl=1
d=8
=============isramsd_decoder : New Iteration===========
Instance : 1

Inside foo before eval.....
a=3
enbl=1
d=8

Inside foo after eval.....
a=2
enbl=1
d=4
=============idata_writer_cktsd : New Iteration===========
Instance : 12

Inside foo before eval.....
wl=1
win=0
bl=0
blbar=1

Inside foo after eval.....
wl=0
win=0
bl=0
blbar=1
=============idata_writer_cktsd : New Iteration===========
Instance : 13

Inside foo before eval.....
wl=0
win=0
bl=0
blbar=1

Inside foo after eval.....
wl=1
win=0
bl=0
blbar=1
=============isramsd_decoder : New Iteration===========
Instance : 1

Inside foo before eval.....
a=2
enbl=1
d=4

Inside foo after eval.....
a=3
enbl=1
d=8
=============idata_writer_cktsd : New Iteration===========
Instance : 8

Inside foo before eval.....
wl=0
win=0
bl=0
blbar=1

Inside foo after eval.....
wl=0
win=1
bl=0
blbar=1
=============idata_writer_cktsd : New Iteration===========
Instance : 9

Inside foo before eval.....
wl=0
win=0
bl=0
blbar=1

Inside foo after eval.....
wl=0
win=1
bl=0
blbar=1
=============idata_writer_cktsd : New Iteration===========
Instance : 10

Inside foo before eval.....
wl=0
win=0
bl=0
blbar=1

Inside foo after eval.....
wl=0
win=1
bl=0
blbar=1
=============idata_writer_cktsd : New Iteration===========
Instance : 11

Inside foo before eval.....
wl=0
win=0
bl=0
blbar=1

Inside foo after eval.....
wl=0
win=1
bl=0
blbar=1
=============idata_writer_cktsd : New Iteration===========
Instance : 12

Inside foo before eval.....
wl=0
win=0
bl=0
blbar=1

Inside foo after eval.....
wl=0
win=1
bl=0
blbar=1
=============idata_writer_cktsd : New Iteration===========
Instance : 13

Inside foo before eval.....
wl=1
win=0
bl=0
blbar=1

Inside foo after eval.....
wl=1
win=1
bl=1
blbar=0
=============idata_writer_cktsd : New Iteration===========
Instance : 14

Inside foo before eval.....
wl=0
win=0
bl=0
blbar=1

Inside foo after eval.....
wl=0
win=1
bl=0
blbar=1
=============idata_writer_cktsd : New Iteration===========
Instance : 15

Inside foo before eval.....
wl=0
win=0
bl=0
blbar=1

Inside foo after eval.....
wl=0
win=1
bl=0
blbar=1
=============isramsd_decoder : New Iteration===========
Instance : 1

Inside foo before eval.....
a=3
enbl=1
d=8

Inside foo after eval.....
a=3
enbl=1
d=8
=============isramsd_decoder : New Iteration===========
Instance : 1

Inside foo before eval.....
a=3
enbl=1
d=8

Inside foo after eval.....
a=1
enbl=1
d=2
=============idata_writer_cktsd : New Iteration===========
Instance : 13

Inside foo before eval.....
wl=1
win=1
bl=1
blbar=0

Inside foo after eval.....
wl=0
win=1
bl=0
blbar=1
=============idata_writer_cktsd : New Iteration===========
Instance : 12

Inside foo before eval.....
wl=0
win=1
bl=0
blbar=1

Inside foo after eval.....
wl=1
win=1
bl=1
blbar=0
=============idata_writer_cktsd : New Iteration===========
Instance : 12

Inside foo before eval.....
wl=1
win=1
bl=1
blbar=0

Inside foo after eval.....
wl=0
win=1
bl=0
blbar=1
=============idata_writer_cktsd : New Iteration===========
Instance : 14

Inside foo before eval.....
wl=0
win=1
bl=0
blbar=1

Inside foo after eval.....
wl=1
win=1
bl=1
blbar=0
=============isramsd_decoder : New Iteration===========
Instance : 1

Inside foo before eval.....
a=1
enbl=1
d=2

Inside foo after eval.....
a=1
enbl=1
d=2
=============isramsd_decoder : New Iteration===========
Instance : 1

Inside foo before eval.....
a=1
enbl=1
d=2

Inside foo after eval.....
a=0
enbl=1
d=1
=============idata_writer_cktsd : New Iteration===========
Instance : 14

Inside foo before eval.....
wl=1
win=1
bl=1
blbar=0

Inside foo after eval.....
wl=0
win=1
bl=0
blbar=1
=============idata_writer_cktsd : New Iteration===========
Instance : 15

Inside foo before eval.....
wl=0
win=1
bl=0
blbar=1

Inside foo after eval.....
wl=1
win=1
bl=1
blbar=0
=============isramsd_decoder : New Iteration===========
Instance : 1

Inside foo before eval.....
a=0
enbl=1
d=1

Inside foo after eval.....
a=7
enbl=1
d=128
=============isramsd_decoder : New Iteration===========
Instance : 1

Inside foo before eval.....
a=7
enbl=1
d=128

Inside foo after eval.....
a=7
enbl=1
d=128
=============isramsd_decoder : New Iteration===========
Instance : 1

Inside foo before eval.....
a=7
enbl=1
d=128

Inside foo after eval.....
a=7
enbl=1
d=128
=============idata_writer_cktsd : New Iteration===========
Instance : 8

Inside foo before eval.....
wl=0
win=1
bl=0
blbar=1

Inside foo after eval.....
wl=1
win=1
bl=1
blbar=0
=============idata_writer_cktsd : New Iteration===========
Instance : 15

Inside foo before eval.....
wl=1
win=1
bl=1
blbar=0

Inside foo after eval.....
wl=0
win=1
bl=0
blbar=1
=============isramsd_decoder : New Iteration===========
Instance : 1

Inside foo before eval.....
a=7
enbl=1
d=128

Inside foo after eval.....
a=7
enbl=1
d=128
=============isramsd_decoder : New Iteration===========
Instance : 1

Inside foo before eval.....
a=7
enbl=1
d=128

Inside foo after eval.....
a=6
enbl=1
d=64
=============idata_writer_cktsd : New Iteration===========
Instance : 8

Inside foo before eval.....
wl=1
win=1
bl=1
blbar=0

Inside foo after eval.....
wl=0
win=1
bl=0
blbar=1
=============idata_writer_cktsd : New Iteration===========
Instance : 9

Inside foo before eval.....
wl=0
win=1
bl=0
blbar=1

Inside foo after eval.....
wl=1
win=1
bl=1
blbar=0
=============isramsd_decoder : New Iteration===========
Instance : 1

Inside foo before eval.....
a=6
enbl=1
d=64

Inside foo after eval.....
a=7
enbl=1
d=128
=============isramsd_decoder : New Iteration===========
Instance : 1

Inside foo before eval.....
a=7
enbl=1
d=128

Inside foo after eval.....
a=7
enbl=1
d=128
=============isramsd_decoder : New Iteration===========
Instance : 1

Inside foo before eval.....
a=7
enbl=1
d=128

Inside foo after eval.....
a=7
enbl=1
d=128
=============isramsd_decoder : New Iteration===========
Instance : 1

Inside foo before eval.....
a=7
enbl=1
d=128

Inside foo after eval.....
a=5
enbl=1
d=32
=============isramsd_decoder : New Iteration===========
Instance : 1

Inside foo before eval.....
a=5
enbl=1
d=32

Inside foo after eval.....
a=5
enbl=1
d=32
=============idata_writer_cktsd : New Iteration===========
Instance : 8

Inside foo before eval.....
wl=0
win=1
bl=0
blbar=1

Inside foo after eval.....
wl=1
win=1
bl=1
blbar=0
=============idata_writer_cktsd : New Iteration===========
Instance : 9

Inside foo before eval.....
wl=1
win=1
bl=1
blbar=0

Inside foo after eval.....
wl=0
win=1
bl=0
blbar=1
=============idata_writer_cktsd : New Iteration===========
Instance : 8

Inside foo before eval.....
wl=1
win=1
bl=1
blbar=0

Inside foo after eval.....
wl=0
win=1
bl=0
blbar=1
=============idata_writer_cktsd : New Iteration===========
Instance : 10

Inside foo before eval.....
wl=0
win=1
bl=0
blbar=1

Inside foo after eval.....
wl=1
win=1
bl=1
blbar=0
=============isramsd_decoder : New Iteration===========
Instance : 1

Inside foo before eval.....
a=5
enbl=1
d=32

Inside foo after eval.....
a=5
enbl=1
d=32
=============isramsd_decoder : New Iteration===========
Instance : 1

Inside foo before eval.....
a=5
enbl=1
d=32

Inside foo after eval.....
a=4
enbl=1
d=16
=============idata_writer_cktsd : New Iteration===========
Instance : 10

Inside foo before eval.....
wl=1
win=1
bl=1
blbar=0

Inside foo after eval.....
wl=0
win=1
bl=0
blbar=1
=============idata_writer_cktsd : New Iteration===========
Instance : 11

Inside foo before eval.....
wl=0
win=1
bl=0
blbar=1

Inside foo after eval.....
wl=1
win=1
bl=1
blbar=0

No. of Data Rows : 1843

Total analysis time (seconds) = 3.51136

Total CPU time (seconds) = 15.260 

Total DRAM available = 257855.305 MB.
DRAM currently available = 242994.863 MB.
Maximum ngspice program size =  397.828 MB.
Current ngspice program size =  332.258 MB.

Shared ngspice pages =   10.246 MB.
Text (code) pages =    6.285 MB.
Stack = 0 bytes.
Library pages =  325.402 MB.

